SO4_2
  PyMOL3.1          3D                             0

  5  4  0  0  0  0  0  0  0  0999 V2000
  -18.7870   -9.5770  -32.6440 O   0  0  0  0  0  0  0  0  0  0  0  0
  -20.3260  -10.3580  -34.3610 O   0  5  0  0  0  0  0  0  0  0  0  0
  -18.2600   -9.2850  -34.9530 O   0  5  0  0  0  0  0  0  0  0  0  0
  -20.0600   -7.9900  -34.0140 O   0  0  0  0  0  0  0  0  0  0  0  0
  -19.3760   -9.3000  -33.9770 S   0  0  0  0  0  0  0  0  0  0  0  0
  1  5  2  0  0  0  0
  2  5  1  0  0  0  0
  3  5  1  0  0  0  0
  4  5  2  0  0  0  0
M  END
>  <pdb_header>


$$$$
