SO4_3
  PyMOL3.1          3D                             0

  5  4  0  0  0  0  0  0  0  0999 V2000
  -37.9120   -4.3600  -26.9340 O   0  0  0  0  0  0  0  0  0  0  0  0
  -38.9010   -5.6720  -28.7280 O   0  5  0  0  0  0  0  0  0  0  0  0
  -37.4820   -6.7490  -27.0670 O   0  5  0  0  0  0  0  0  0  0  0  0
  -36.5490   -5.2260  -28.6940 O   0  0  0  0  0  0  0  0  0  0  0  0
  -37.7220   -5.5030  -27.8480 S   0  0  0  0  0  0  0  0  0  0  0  0
  1  5  2  0  0  0  0
  2  5  1  0  0  0  0
  3  5  1  0  0  0  0
  4  5  2  0  0  0  0
M  END
>  <pdb_header>


$$$$
