TLA_1
  PyMOL3.1          3D                             0

 14 13  0  0  0  0  0  0  0  0999 V2000
   33.6680    8.6910   -7.1080 C   0  0  0  0  0  0  0  0  0  0  0  0
   33.4080    8.3210   -8.2420 O   0  0  0  0  0  0  0  0  0  0  0  0
   32.5880    8.8090   -6.0360 C   0  0  0  0  0  0  0  0  0  0  0  0
   31.3050    8.5540   -6.5800 O   0  0  0  0  0  0  0  0  0  0  0  0
   32.6220   10.1790   -5.3490 C   0  0  0  0  0  0  0  0  0  0  0  0
   32.4480   11.2190   -6.2980 O   0  0  0  0  0  0  0  0  0  0  0  0
   31.5690   10.2560   -4.2450 C   0  0  0  0  0  0  0  0  0  0  0  0
   30.7250   11.1460   -4.2180 O   0  0  0  0  0  0  0  0  0  0  0  0
   34.8800    8.9420   -6.6800 O   0  5  0  0  0  0  0  0  0  0  0  0
   31.6760    9.3140   -3.3340 O   0  5  0  0  0  0  0  0  0  0  0  0
   32.1605   10.8451   -7.1341 H   0  0  0  0  0  0  0  0  0  0  0  0
   30.6430    8.6340   -5.8890 H   0  0  0  0  0  0  0  0  0  0  0  0
   32.8190    8.1360   -5.2110 H   0  0  0  0  0  0  0  0  0  0  0  0
   33.5560   10.2850   -4.7960 H   0  0  0  0  0  0  0  0  0  0  0  0
  1  3  1  0  0  0  0
  1  2  2  0  0  0  0
  3  4  1  0  0  0  0
  3  5  1  0  0  0  0
  3 13  1  0  0  0  0
  4 12  1  0  0  0  0
  5  6  1  0  0  0  0
  5  7  1  0  0  0  0
  5 14  1  0  0  0  0
  6 11  1  0  0  0  0
  7  8  2  0  0  0  0
  7 10  1  0  0  0  0
  1  9  1  0  0  0  0
M  END
>  <pdb_header>


$$$$
