MRTX_438_7RPZ_conf1
  PyMOL3.1          3D                             0

 76 84  0  0  0  0  0  0  0  0999 V2000
    2.3006    3.7124  -23.8537 C   0  0  0  0  0  0  0  0  0  0  0  0
   -4.1368    2.9361  -24.0397 C   0  0  0  0  0  0  0  0  0  0  0  0
    1.9085    5.9696  -23.0186 N   0  0  0  0  0  0  0  0  0  0  0  0
    3.7017    7.2379  -22.4330 O   0  0  0  0  0  0  0  0  0  0  0  0
    1.4569    4.8039  -23.5583 C   0  0  0  0  0  0  0  0  0  0  0  0
   -2.7749    3.1621  -23.7303 C   0  0  0  0  0  0  0  0  0  0  0  0
    4.1432    5.0863  -23.0760 N   0  0  0  0  0  0  0  0  0  0  0  0
    3.2270    6.0311  -22.8596 C   0  0  0  0  0  0  0  0  0  0  0  0
   -2.6090    3.3799  -22.2375 C   0  0  0  0  0  0  0  0  0  0  0  0
    0.4794    2.4736  -24.8389 N   0  0  0  0  0  0  0  0  0  0  0  0
    3.6946    3.9278  -23.5291 C   0  0  0  0  0  0  0  0  0  0  0  0
   -4.0162    3.2453  -21.6797 C   0  0  0  0  0  0  0  0  0  0  0  0
    4.6344    2.8977  -23.7020 N   0  0  0  0  0  0  0  0  0  0  0  0
    1.7810    2.5869  -24.5234 C   0  0  0  0  0  0  0  0  0  0  0  0
   -4.9919    2.9859  -22.8142 C   0  0  0  0  0  0  0  0  0  0  0  0
    6.6853    1.1937  -22.5576 N   0  3  0  0  0  0  0  0  0  0  0  0
   -0.3617    3.3603  -24.4274 C   0  0  0  0  0  0  0  0  0  0  0  0
    5.0790    9.5933  -23.2873 N   0  3  0  0  0  0  0  0  0  0  0  0
    0.1375    4.5884  -23.8197 C   0  0  0  0  0  0  0  0  0  0  0  0
   -1.7802    3.1397  -24.7137 C   0  0  0  0  0  0  0  0  0  0  0  0
    5.0960    7.3300  -22.1142 C   0  0  0  0  0  0  0  0  0  0  0  0
    4.3447    1.4411  -23.2396 C   0  0  0  0  0  0  0  0  0  0  0  0
    5.2757    1.0992  -22.0870 C   0  0  0  0  0  0  0  0  0  0  0  0
    6.8443    2.6706  -22.6061 C   0  0  0  0  0  0  0  0  0  0  0  0
    6.0947    3.2355  -23.8081 C   0  0  0  0  0  0  0  0  0  0  0  0
    6.2160    3.0865  -21.2581 C   0  0  0  0  0  0  0  0  0  0  0  0
    5.2303    2.0956  -20.9173 C   0  0  0  0  0  0  0  0  0  0  0  0
   -2.2018    2.8658  -26.0297 C   0  0  0  0  0  0  0  0  0  0  0  0
   -3.5524    2.6504  -26.3447 C   0  0  0  0  0  0  0  0  0  0  0  0
   -4.5246    2.6885  -25.3477 C   0  0  0  0  0  0  0  0  0  0  0  0
    5.3809    8.8793  -21.9858 C   0  0  0  0  0  0  0  0  0  0  0  0
    4.4128    9.5183  -20.9329 C   0  0  0  0  0  0  0  0  0  0  0  0
    3.9684   10.8147  -21.6006 C   0  0  0  0  0  0  0  0  0  0  0  0
    3.8984   10.4754  -23.0736 C   0  0  0  0  0  0  0  0  0  0  0  0
    6.3201   10.2814  -23.7114 C   0  0  0  0  0  0  0  0  0  0  0  0
    7.4171    9.4338  -23.0979 C   0  0  0  0  0  0  0  0  0  0  0  0
    6.8731    9.0933  -21.6580 C   0  0  0  0  0  0  0  0  0  0  0  0
   -5.0974    4.2464  -21.9961 C   0  0  0  0  0  0  0  0  0  0  0  0
   -0.7268    5.6157  -23.4787 F   0  0  0  0  0  0  0  0  0  0  0  0
    4.8365   11.8095  -21.3189 F   0  0  0  0  0  0  0  0  0  0  0  0
   -5.5692    2.5155  -25.5899 H   0  0  0  0  0  0  0  0  0  0  0  0
    2.4594    1.7784  -24.7955 H   0  0  0  0  0  0  0  0  0  0  0  0
    6.8755    0.7172  -23.4276 H   0  0  0  0  0  0  0  0  0  0  0  0
    5.7224    6.8586  -22.8715 H   0  0  0  0  0  0  0  0  0  0  0  0
    5.3100    6.8205  -21.1746 H   0  0  0  0  0  0  0  0  0  0  0  0
    4.5097    0.7503  -24.0665 H   0  0  0  0  0  0  0  0  0  0  0  0
    3.3085    1.3593  -22.9113 H   0  0  0  0  0  0  0  0  0  0  0  0
    4.9541    0.1114  -21.7568 H   0  0  0  0  0  0  0  0  0  0  0  0
    7.8663    3.0304  -22.7254 H   0  0  0  0  0  0  0  0  0  0  0  0
    6.2126    4.3189  -23.8286 H   0  0  0  0  0  0  0  0  0  0  0  0
    6.5008    2.8053  -24.7235 H   0  0  0  0  0  0  0  0  0  0  0  0
    5.7582    4.0727  -21.3359 H   0  0  0  0  0  0  0  0  0  0  0  0
    6.9842    3.1296  -20.4860 H   0  0  0  0  0  0  0  0  0  0  0  0
    5.4313    1.6206  -19.9570 H   0  0  0  0  0  0  0  0  0  0  0  0
    4.2418    2.5465  -20.8309 H   0  0  0  0  0  0  0  0  0  0  0  0
   -1.4691    2.8175  -26.8342 H   0  0  0  0  0  0  0  0  0  0  0  0
   -3.8421    2.4460  -27.3731 H   0  0  0  0  0  0  0  0  0  0  0  0
   -5.7452    2.2195  -22.6656 H   0  0  0  0  0  0  0  0  0  0  0  0
   -5.9322    4.3281  -21.3083 H   0  0  0  0  0  0  0  0  0  0  0  0
    4.8857    9.6799  -19.9642 H   0  0  0  0  0  0  0  0  0  0  0  0
    3.5608    8.8666  -20.7396 H   0  0  0  0  0  0  0  0  0  0  0  0
    3.0144   11.1992  -21.2397 H   0  0  0  0  0  0  0  0  0  0  0  0
    2.9586    9.9996  -23.3539 H   0  0  0  0  0  0  0  0  0  0  0  0
    3.9685   11.3753  -23.6847 H   0  0  0  0  0  0  0  0  0  0  0  0
    6.3592   11.3235  -23.3942 H   0  0  0  0  0  0  0  0  0  0  0  0
    6.4038   10.3026  -24.7980 H   0  0  0  0  0  0  0  0  0  0  0  0
    8.3792    9.9455  -23.0732 H   0  0  0  0  0  0  0  0  0  0  0  0
    7.5762    8.5248  -23.6781 H   0  0  0  0  0  0  0  0  0  0  0  0
    7.3627    8.2522  -21.1671 H   0  0  0  0  0  0  0  0  0  0  0  0
    7.0219    9.9186  -20.9618 H   0  0  0  0  0  0  0  0  0  0  0  0
   -4.8241    5.1876  -22.4603 H   0  0  0  0  0  0  0  0  0  0  0  0
    7.3281    0.7682  -21.9051 H   0  0  0  0  0  0  0  0  0  0  0  0
    4.8210    8.9753  -24.0433 H   0  0  0  0  0  0  0  0  0  0  0  0
   -4.0870    2.6577  -20.7757 H   0  0  0  0  0  0  0  0  0  0  0  0
   -1.9589    2.6082  -21.8135 H   0  0  0  0  0  0  0  0  0  0  0  0
   -2.2146    4.3741  -22.0142 H   0  0  0  0  0  0  0  0  0  0  0  0
  2  6  1  0  0  0  0
  2 15  1  0  0  0  0
  1  5  2  0  0  0  0
  3  5  1  0  0  0  0
  6  9  1  0  0  0  0
  3  8  2  0  0  0  0
  4  8  1  0  0  0  0
  7  8  1  0  0  0  0
  9 12  1  0  0  0  0
  9 75  1  0  0  0  0
  9 76  1  0  0  0  0
  1 11  1  0  0  0  0
  7 11  2  0  0  0  0
 12 15  1  0  0  0  0
 12 74  1  0  0  0  0
 11 13  1  0  0  0  0
  1 14  1  0  0  0  0
 10 14  2  0  0  0  0
 14 42  1  0  0  0  0
 15 38  1  0  0  0  0
 15 58  1  0  0  0  0
 16 43  1  0  0  0  0
 16 72  1  0  0  0  0
 10 17  1  0  0  0  0
 18 73  1  0  0  0  0
  5 19  1  0  0  0  0
 17 19  2  0  0  0  0
  6 20  2  0  0  0  0
 17 20  1  0  0  0  0
  4 21  1  0  0  0  0
 21 44  1  0  0  0  0
 21 45  1  0  0  0  0
 13 22  1  0  0  0  0
 22 46  1  0  0  0  0
 22 47  1  0  0  0  0
 16 23  1  0  0  0  0
 22 23  1  0  0  0  0
 23 48  1  0  0  0  0
 16 24  1  0  0  0  0
 24 49  1  0  0  0  0
 13 25  1  0  0  0  0
 24 25  1  0  0  0  0
 25 50  1  0  0  0  0
 25 51  1  0  0  0  0
 24 26  1  0  0  0  0
 26 52  1  0  0  0  0
 26 53  1  0  0  0  0
 23 27  1  0  0  0  0
 26 27  1  0  0  0  0
 27 54  1  0  0  0  0
 27 55  1  0  0  0  0
 20 28  1  0  0  0  0
 28 56  1  0  0  0  0
 28 29  2  0  0  0  0
 29 57  1  0  0  0  0
  2 30  2  0  0  0  0
 29 30  1  0  0  0  0
 30 41  1  0  0  0  0
 18 31  1  0  0  0  0
 21 31  1  0  0  0  0
 31 32  1  0  0  0  0
 32 60  1  0  0  0  0
 32 61  1  0  0  0  0
 32 33  1  0  0  0  0
 33 40  1  0  0  0  0
 33 62  1  0  0  0  0
 18 34  1  0  0  0  0
 33 34  1  0  0  0  0
 34 63  1  0  0  0  0
 34 64  1  0  0  0  0
 18 35  1  0  0  0  0
 35 65  1  0  0  0  0
 35 66  1  0  0  0  0
 35 36  1  0  0  0  0
 36 67  1  0  0  0  0
 36 68  1  0  0  0  0
 31 37  1  0  0  0  0
 36 37  1  0  0  0  0
 37 69  1  0  0  0  0
 37 70  1  0  0  0  0
 12 38  1  0  0  0  0
 38 59  1  0  0  0  0
 38 71  1  0  0  0  0
 19 39  1  0  0  0  0
M  END
$$$$
