MRTX_119_7RPZ_p1_conf2
  PyMOL3.1          3D                             0

 54 59  0  0  0  0  0  0  0  0999 V2000
    0.4009    3.0639  -24.0983 N   0  0  0  0  0  0  0  0  0  0  0  0
    4.2488    5.4801  -22.5818 N   0  0  0  0  0  0  0  0  0  0  0  0
    2.0955    6.4705  -22.4575 N   0  0  0  0  0  0  0  0  0  0  0  0
   -5.8358    3.7515  -24.7337 O   0  0  0  0  0  0  0  0  0  0  0  0
    3.4293    6.4992  -22.2529 C   0  0  0  0  0  0  0  0  0  0  0  0
   -0.3653    4.1146  -23.7616 C   0  0  0  0  0  0  0  0  0  0  0  0
   -3.6309    3.8073  -25.5454 C   0  0  0  0  0  0  0  0  0  0  0  0
   -4.0737    3.9881  -23.1990 C   0  0  0  0  0  0  0  0  0  0  0  0
   -2.2693    3.8905  -25.3022 C   0  0  0  0  0  0  0  0  0  0  0  0
   -2.7261    4.0844  -22.9613 C   0  0  0  0  0  0  0  0  0  0  0  0
   -4.5289    3.8484  -24.4880 C   0  0  0  0  0  0  0  0  0  0  0  0
   -1.8151    4.0259  -24.0113 C   0  0  0  0  0  0  0  0  0  0  0  0
    0.1959    5.2577  -23.2146 C   0  0  0  0  0  0  0  0  0  0  0  0
    1.7248    3.1275  -23.8928 C   0  0  0  0  0  0  0  0  0  0  0  0
    3.7525    4.3426  -23.0789 C   0  0  0  0  0  0  0  0  0  0  0  0
    1.5602    5.3398  -23.0091 C   0  0  0  0  0  0  0  0  0  0  0  0
    2.3567    4.2401  -23.3395 C   0  0  0  0  0  0  0  0  0  0  0  0
    4.0024    7.6251  -21.7258 N   0  0  0  0  0  0  0  0  0  0  0  0
    4.6848    3.3378  -23.3692 N   0  0  0  0  0  0  0  0  0  0  0  0
    5.3013    7.7890  -21.2851 C   0  0  0  0  0  0  0  0  0  0  0  0
    3.2776    8.6210  -21.1112 C   0  0  0  0  0  0  0  0  0  0  0  0
    4.5691    8.8021  -20.3593 C   0  0  0  0  0  0  0  0  0  0  0  0
    4.4007    1.8980  -23.4633 C   0  0  0  0  0  0  0  0  0  0  0  0
    6.0969    3.6751  -23.3708 C   0  0  0  0  0  0  0  0  0  0  0  0
    5.0252    1.7040  -20.9964 C   0  0  0  0  0  0  0  0  0  0  0  0
    5.9349    2.9170  -20.9435 C   0  0  0  0  0  0  0  0  0  0  0  0
    5.2503    1.1268  -22.4190 C   0  0  0  0  0  0  0  0  0  0  0  0
    6.7853    2.8631  -22.2687 C   0  0  0  0  0  0  0  0  0  0  0  0
    6.6747    1.4316  -22.6832 N   0  3  0  0  0  0  0  0  0  0  0  0
   -1.3928    3.8390  -26.3277 F   0  0  0  0  0  0  0  0  0  0  0  0
   -0.5924    6.3260  -22.8998 F   0  0  0  0  0  0  0  0  0  0  0  0
    4.8890    9.8236  -20.2083 H   0  0  0  0  0  0  0  0  0  0  0  0
    4.5500    8.4766  -19.3642 H   0  0  0  0  0  0  0  0  0  0  0  0
   -6.1884    2.9757  -24.2916 H   0  0  0  0  0  0  0  0  0  0  0  0
   -3.9968    3.7094  -26.5675 H   0  0  0  0  0  0  0  0  0  0  0  0
   -4.7799    4.0221  -22.3694 H   0  0  0  0  0  0  0  0  0  0  0  0
   -2.3623    4.2114  -21.9417 H   0  0  0  0  0  0  0  0  0  0  0  0
    2.3354    2.2687  -24.1715 H   0  0  0  0  0  0  0  0  0  0  0  0
    6.3091    8.0693  -21.5978 H   0  0  0  0  0  0  0  0  0  0  0  0
    5.6745    6.8087  -21.0810 H   0  0  0  0  0  0  0  0  0  0  0  0
    2.3728    8.6706  -20.5279 H   0  0  0  0  0  0  0  0  0  0  0  0
    2.9452    9.3115  -21.9193 H   0  0  0  0  0  0  0  0  0  0  0  0
    4.6526    1.5457  -24.4635 H   0  0  0  0  0  0  0  0  0  0  0  0
    3.3422    1.7236  -23.2700 H   0  0  0  0  0  0  0  0  0  0  0  0
    6.2288    4.7419  -23.1899 H   0  0  0  0  0  0  0  0  0  0  0  0
    6.5344    3.4297  -24.3386 H   0  0  0  0  0  0  0  0  0  0  0  0
    3.9815    1.9543  -20.8060 H   0  0  0  0  0  0  0  0  0  0  0  0
    5.3036    0.9766  -20.2339 H   0  0  0  0  0  0  0  0  0  0  0  0
    6.5680    2.9092  -20.0563 H   0  0  0  0  0  0  0  0  0  0  0  0
    5.3467    3.8339  -20.9045 H   0  0  0  0  0  0  0  0  0  0  0  0
    4.9857    0.0713  -22.4831 H   0  0  0  0  0  0  0  0  0  0  0  0
    7.7979    3.2382  -22.1205 H   0  0  0  0  0  0  0  0  0  0  0  0
    6.9485    1.2693  -23.6417 H   0  0  0  0  0  0  0  0  0  0  0  0
    7.2825    0.8436  -22.1310 H   0  0  0  0  0  0  0  0  0  0  0  0
  1 14  4  0  0  0  0
  2  5  4  0  0  0  0
  3 16  4  0  0  0  0
  4 11  1  0  0  0  0
  4 34  1  0  0  0  0
  3  5  4  0  0  0  0
  5 18  1  0  0  0  0
  1  6  4  0  0  0  0
  6 13  4  0  0  0  0
  7  9  4  0  0  0  0
  7 35  1  0  0  0  0
  8 36  1  0  0  0  0
  9 12  4  0  0  0  0
  9 30  1  0  0  0  0
  8 10  4  0  0  0  0
 10 37  1  0  0  0  0
  7 11  4  0  0  0  0
  8 11  4  0  0  0  0
  6 12  1  0  0  0  0
 10 12  4  0  0  0  0
 13 31  1  0  0  0  0
 14 17  4  0  0  0  0
 14 38  1  0  0  0  0
  2 15  4  0  0  0  0
 15 19  1  0  0  0  0
 13 16  4  0  0  0  0
 15 17  4  0  0  0  0
 16 17  4  0  0  0  0
 18 20  1  0  0  0  0
 18 21  1  0  0  0  0
 19 23  1  0  0  0  0
 19 24  1  0  0  0  0
 20 22  1  0  0  0  0
 20 39  1  0  0  0  0
 20 40  1  0  0  0  0
 21 41  1  0  0  0  0
 21 42  1  0  0  0  0
 21 22  1  0  0  0  0
 22 32  1  0  0  0  0
 22 33  1  0  0  0  0
 23 27  1  0  0  0  0
 23 43  1  0  0  0  0
 23 44  1  0  0  0  0
 24 45  1  0  0  0  0
 24 46  1  0  0  0  0
 25 26  1  0  0  0  0
 25 47  1  0  0  0  0
 25 48  1  0  0  0  0
 26 28  1  0  0  0  0
 26 49  1  0  0  0  0
 26 50  1  0  0  0  0
 25 27  1  0  0  0  0
 27 29  1  0  0  0  0
 27 51  1  0  0  0  0
 24 28  1  0  0  0  0
 28 29  1  0  0  0  0
 28 52  1  0  0  0  0
 29 53  1  0  0  0  0
 29 54  1  0  0  0  0
M  END
$$$$
