MRTZ_177_7RPZ_conf2
  PyMOL3.1          3D                             0

 68 73  0  0  0  0  0  0  0  0999 V2000
    2.3006    3.7124  -23.8537 C   0  0  0  0  0  0  0  0  0  0  0  0
    1.9085    5.9696  -23.0186 N   0  0  0  0  0  0  0  0  0  0  0  0
    3.7017    7.2379  -22.4330 O   0  0  0  0  0  0  0  0  0  0  0  0
    1.4569    4.8039  -23.5583 C   0  0  0  0  0  0  0  0  0  0  0  0
    4.1432    5.0863  -23.0760 N   0  0  0  0  0  0  0  0  0  0  0  0
    3.2270    6.0311  -22.8596 C   0  0  0  0  0  0  0  0  0  0  0  0
    0.4794    2.4736  -24.8389 N   0  0  0  0  0  0  0  0  0  0  0  0
    3.6946    3.9278  -23.5291 C   0  0  0  0  0  0  0  0  0  0  0  0
    4.6344    2.8977  -23.7020 N   0  0  0  0  0  0  0  0  0  0  0  0
    1.7810    2.5869  -24.5234 C   0  0  0  0  0  0  0  0  0  0  0  0
    6.6853    1.1937  -22.5576 N   0  3  0  0  0  0  0  0  0  0  0  0
   -0.3617    3.3603  -24.4274 C   0  0  0  0  0  0  0  0  0  0  0  0
    0.1375    4.5884  -23.8197 C   0  0  0  0  0  0  0  0  0  0  0  0
   -1.8117    3.3404  -24.7926 C   0  0  0  0  0  0  0  0  0  0  0  0
    5.0960    7.3300  -22.1142 C   0  0  0  0  0  0  0  0  0  0  0  0
    4.3447    1.4411  -23.2396 C   0  0  0  0  0  0  0  0  0  0  0  0
    5.2757    1.0992  -22.0870 C   0  0  0  0  0  0  0  0  0  0  0  0
    6.8443    2.6706  -22.6061 C   0  0  0  0  0  0  0  0  0  0  0  0
    6.0947    3.2355  -23.8081 C   0  0  0  0  0  0  0  0  0  0  0  0
    6.2160    3.0865  -21.2581 C   0  0  0  0  0  0  0  0  0  0  0  0
    5.2303    2.0956  -20.9173 C   0  0  0  0  0  0  0  0  0  0  0  0
   -2.1289    3.4978  -26.2233 C   0  0  0  0  0  0  0  0  0  0  0  0
   -3.4829    3.6557  -26.5992 C   0  0  0  0  0  0  0  0  0  0  0  0
   -4.4982    3.7395  -25.7436 C   0  0  0  0  0  0  0  0  0  0  0  0
   -4.2555    3.6128  -24.4070 C   0  0  0  0  0  0  0  0  0  0  0  0
   -2.9067    3.3743  -23.8760 C   0  0  0  0  0  0  0  0  0  0  0  0
   -5.3124    3.6429  -23.4049 C   0  0  0  0  0  0  0  0  0  0  0  0
   -5.0528    3.4550  -22.0684 C   0  0  0  0  0  0  0  0  0  0  0  0
   -3.8130    3.2243  -21.7176 C   0  0  0  0  0  0  0  0  0  0  0  0
   -2.7532    3.1284  -22.4547 C   0  0  0  0  0  0  0  0  0  0  0  0
    5.3809    8.8793  -21.9858 C   0  0  0  0  0  0  0  0  0  0  0  0
    5.0678    9.6101  -23.3047 C   0  0  0  0  0  0  0  0  0  0  0  0
    2.8785   10.9056  -23.3044 C   0  0  0  0  0  0  0  0  0  0  0  0
   -1.1803    2.7142  -21.7566 Cl  0  0  0  0  0  0  0  0  0  0  0  0
   -0.7268    5.6157  -23.4787 F   0  0  0  0  0  0  0  0  0  0  0  0
   -3.7106    3.7128  -27.6637 H   0  0  0  0  0  0  0  0  0  0  0  0
    2.4594    1.7784  -24.7955 H   0  0  0  0  0  0  0  0  0  0  0  0
    6.8755    0.7172  -23.4276 H   0  0  0  0  0  0  0  0  0  0  0  0
    5.7224    6.8586  -22.8715 H   0  0  0  0  0  0  0  0  0  0  0  0
    5.3100    6.8205  -21.1746 H   0  0  0  0  0  0  0  0  0  0  0  0
    4.5097    0.7503  -24.0665 H   0  0  0  0  0  0  0  0  0  0  0  0
    3.3085    1.3593  -22.9113 H   0  0  0  0  0  0  0  0  0  0  0  0
    4.9541    0.1114  -21.7568 H   0  0  0  0  0  0  0  0  0  0  0  0
    7.8663    3.0304  -22.7254 H   0  0  0  0  0  0  0  0  0  0  0  0
    6.2126    4.3189  -23.8286 H   0  0  0  0  0  0  0  0  0  0  0  0
    6.5008    2.8053  -24.7235 H   0  0  0  0  0  0  0  0  0  0  0  0
    5.7582    4.0727  -21.3359 H   0  0  0  0  0  0  0  0  0  0  0  0
    6.9842    3.1296  -20.4860 H   0  0  0  0  0  0  0  0  0  0  0  0
    5.4313    1.6206  -19.9570 H   0  0  0  0  0  0  0  0  0  0  0  0
    4.2418    2.5465  -20.8309 H   0  0  0  0  0  0  0  0  0  0  0  0
   -1.3385    3.4925  -26.9738 H   0  0  0  0  0  0  0  0  0  0  0  0
   -5.5123    3.9075  -26.1062 H   0  0  0  0  0  0  0  0  0  0  0  0
   -6.3394    3.8197  -23.7245 H   0  0  0  0  0  0  0  0  0  0  0  0
   -5.8508    3.4965  -21.3271 H   0  0  0  0  0  0  0  0  0  0  0  0
    4.7442    9.2803  -21.1972 H   0  0  0  0  0  0  0  0  0  0  0  0
    6.4350    9.0293  -21.7525 H   0  0  0  0  0  0  0  0  0  0  0  0
    4.5787    8.9224  -23.9946 H   0  0  0  0  0  0  0  0  0  0  0  0
    5.9949    9.9729  -23.7486 H   0  0  0  0  0  0  0  0  0  0  0  0
    1.1489   10.0747  -23.9791 H   0  0  0  0  0  0  0  0  0  0  0  0
    4.6461   11.4071  -22.4298 H   0  0  0  0  0  0  0  0  0  0  0  0
    2.8490   12.8467  -22.6840 H   0  0  0  0  0  0  0  0  0  0  0  0
    1.3197   12.2175  -23.2547 H   0  0  0  0  0  0  0  0  0  0  0  0
    2.5419    9.0165  -23.9793 H   0  0  0  0  0  0  0  0  0  0  0  0
   -3.6489    3.0938  -20.6480 H   0  0  0  0  0  0  0  0  0  0  0  0
    7.3281    0.7682  -21.9051 H   0  0  0  0  0  0  0  0  0  0  0  0
    4.1769   10.7476  -23.0341 N   0  0  0  0  0  0  0  0  0  0  0  0
    2.1295    9.9196  -23.7936 N   0  3  0  0  0  0  0  0  0  0  0  0
    2.3022   12.0858  -23.0613 N   0  0  0  0  0  0  0  0  0  0  0  0
  1  4  2  0  0  0  0
  2  4  1  0  0  0  0
  2  6  2  0  0  0  0
  3  6  1  0  0  0  0
  5  6  1  0  0  0  0
  1  8  1  0  0  0  0
  5  8  2  0  0  0  0
  8  9  1  0  0  0  0
  1 10  1  0  0  0  0
  7 10  2  0  0  0  0
 10 37  1  0  0  0  0
 11 38  1  0  0  0  0
 11 65  1  0  0  0  0
  7 12  1  0  0  0  0
  4 13  1  0  0  0  0
 12 13  2  0  0  0  0
 12 14  1  0  0  0  0
  3 15  1  0  0  0  0
 15 39  1  0  0  0  0
 15 40  1  0  0  0  0
  9 16  1  0  0  0  0
 16 41  1  0  0  0  0
 16 42  1  0  0  0  0
 11 17  1  0  0  0  0
 16 17  1  0  0  0  0
 17 43  1  0  0  0  0
 11 18  1  0  0  0  0
 18 44  1  0  0  0  0
  9 19  1  0  0  0  0
 18 19  1  0  0  0  0
 19 45  1  0  0  0  0
 19 46  1  0  0  0  0
 18 20  1  0  0  0  0
 20 47  1  0  0  0  0
 20 48  1  0  0  0  0
 17 21  1  0  0  0  0
 20 21  1  0  0  0  0
 21 49  1  0  0  0  0
 21 50  1  0  0  0  0
 14 22  1  0  0  0  0
 22 51  1  0  0  0  0
 22 23  2  0  0  0  0
 23 36  1  0  0  0  0
 23 24  1  0  0  0  0
 24 52  1  0  0  0  0
 24 25  2  0  0  0  0
 14 26  2  0  0  0  0
 25 26  1  0  0  0  0
 25 27  1  0  0  0  0
 27 53  1  0  0  0  0
 27 28  2  0  0  0  0
 28 54  1  0  0  0  0
 28 29  1  0  0  0  0
 29 64  1  0  0  0  0
 26 30  1  0  0  0  0
 29 30  2  0  0  0  0
 30 34  1  0  0  0  0
 15 31  1  0  0  0  0
 31 32  1  0  0  0  0
 31 55  1  0  0  0  0
 31 56  1  0  0  0  0
 32 57  1  0  0  0  0
 32 58  1  0  0  0  0
 32 66  1  0  0  0  0
 33 67  2  0  0  0  0
 33 68  1  0  0  0  0
 13 35  1  0  0  0  0
 33 66  1  0  0  0  0
 60 66  1  0  0  0  0
 59 67  1  0  0  0  0
 63 67  1  0  0  0  0
 61 68  1  0  0  0  0
 62 68  1  0  0  0  0
M  END
$$$$
