MRTX_6_7RPZ
  PyMOL3.1          3D                             0

 70 76  0  0  0  0  0  0  0  0999 V2000
    2.3006    3.7124  -23.8537 C   0  0  0  0  0  0  0  0  0  0  0  0
    5.0893    9.5949  -23.3179 C   0  0  0  0  0  0  0  0  0  0  0  0
    1.9085    5.9696  -23.0186 N   0  0  0  0  0  0  0  0  0  0  0  0
    3.7017    7.2379  -22.4330 O   0  0  0  0  0  0  0  0  0  0  0  0
    1.4569    4.8039  -23.5583 C   0  0  0  0  0  0  0  0  0  0  0  0
    6.1247   10.2508  -24.0040 C   0  0  0  0  0  0  0  0  0  0  0  0
    4.1432    5.0863  -23.0760 N   0  0  0  0  0  0  0  0  0  0  0  0
   -3.6446    3.6720  -27.9902 O   0  0  0  0  0  0  0  0  0  0  0  0
    3.2270    6.0311  -22.8596 C   0  0  0  0  0  0  0  0  0  0  0  0
    5.8588   10.9035  -25.2189 C   0  0  0  0  0  0  0  0  0  0  0  0
    0.4794    2.4736  -24.8389 N   0  0  0  0  0  0  0  0  0  0  0  0
    3.6946    3.9278  -23.5291 C   0  0  0  0  0  0  0  0  0  0  0  0
    4.5575   10.9003  -25.7476 C   0  0  0  0  0  0  0  0  0  0  0  0
    4.6344    2.8977  -23.7020 N   0  0  0  0  0  0  0  0  0  0  0  0
    1.7810    2.5869  -24.5234 C   0  0  0  0  0  0  0  0  0  0  0  0
    3.5222   10.2444  -25.0615 C   0  0  0  0  0  0  0  0  0  0  0  0
    6.6853    1.1937  -22.5576 N   0  3  0  0  0  0  0  0  0  0  0  0
   -0.3617    3.3603  -24.4274 C   0  0  0  0  0  0  0  0  0  0  0  0
    0.1375    4.5884  -23.8197 C   0  0  0  0  0  0  0  0  0  0  0  0
   -1.8117    3.3404  -24.7926 C   0  0  0  0  0  0  0  0  0  0  0  0
    5.0960    7.3300  -22.1142 C   0  0  0  0  0  0  0  0  0  0  0  0
    4.3447    1.4411  -23.2396 C   0  0  0  0  0  0  0  0  0  0  0  0
    5.2757    1.0992  -22.0870 C   0  0  0  0  0  0  0  0  0  0  0  0
    6.8443    2.6706  -22.6061 C   0  0  0  0  0  0  0  0  0  0  0  0
    6.0947    3.2355  -23.8081 C   0  0  0  0  0  0  0  0  0  0  0  0
    6.2160    3.0865  -21.2581 C   0  0  0  0  0  0  0  0  0  0  0  0
    5.2303    2.0956  -20.9173 C   0  0  0  0  0  0  0  0  0  0  0  0
   -2.1289    3.4978  -26.2233 C   0  0  0  0  0  0  0  0  0  0  0  0
   -3.4829    3.6557  -26.5992 C   0  0  0  0  0  0  0  0  0  0  0  0
   -4.4982    3.7395  -25.7436 C   0  0  0  0  0  0  0  0  0  0  0  0
   -4.2555    3.6128  -24.4070 C   0  0  0  0  0  0  0  0  0  0  0  0
   -2.9067    3.3743  -23.8760 C   0  0  0  0  0  0  0  0  0  0  0  0
   -5.3124    3.6429  -23.4049 C   0  0  0  0  0  0  0  0  0  0  0  0
   -5.0528    3.4550  -22.0684 C   0  0  0  0  0  0  0  0  0  0  0  0
   -3.8130    3.2243  -21.7176 C   0  0  0  0  0  0  0  0  0  0  0  0
   -2.7532    3.1284  -22.4547 C   0  0  0  0  0  0  0  0  0  0  0  0
    5.3809    8.8793  -21.9858 C   0  0  0  0  0  0  0  0  0  0  0  0
    7.5513   10.2542  -23.4241 C   0  0  0  0  0  0  0  0  0  0  0  0
   -0.7268    5.6157  -23.4787 F   0  0  0  0  0  0  0  0  0  0  0  0
   -4.0411    2.8459  -28.2764 H   0  0  0  0  0  0  0  0  0  0  0  0
    2.4594    1.7784  -24.7955 H   0  0  0  0  0  0  0  0  0  0  0  0
    6.8755    0.7172  -23.4276 H   0  0  0  0  0  0  0  0  0  0  0  0
    5.7224    6.8586  -22.8715 H   0  0  0  0  0  0  0  0  0  0  0  0
    5.3100    6.8205  -21.1746 H   0  0  0  0  0  0  0  0  0  0  0  0
    4.5097    0.7503  -24.0665 H   0  0  0  0  0  0  0  0  0  0  0  0
    3.3085    1.3593  -22.9113 H   0  0  0  0  0  0  0  0  0  0  0  0
    4.9541    0.1114  -21.7568 H   0  0  0  0  0  0  0  0  0  0  0  0
    7.8663    3.0304  -22.7254 H   0  0  0  0  0  0  0  0  0  0  0  0
    6.2126    4.3189  -23.8286 H   0  0  0  0  0  0  0  0  0  0  0  0
    6.5008    2.8053  -24.7235 H   0  0  0  0  0  0  0  0  0  0  0  0
    5.7582    4.0727  -21.3359 H   0  0  0  0  0  0  0  0  0  0  0  0
    6.9842    3.1296  -20.4860 H   0  0  0  0  0  0  0  0  0  0  0  0
    5.4313    1.6206  -19.9570 H   0  0  0  0  0  0  0  0  0  0  0  0
    4.2418    2.5465  -20.8309 H   0  0  0  0  0  0  0  0  0  0  0  0
   -1.3385    3.4925  -26.9738 H   0  0  0  0  0  0  0  0  0  0  0  0
   -5.5123    3.9075  -26.1062 H   0  0  0  0  0  0  0  0  0  0  0  0
   -6.3394    3.8197  -23.7245 H   0  0  0  0  0  0  0  0  0  0  0  0
   -5.8508    3.4965  -21.3271 H   0  0  0  0  0  0  0  0  0  0  0  0
    4.7316    9.2935  -21.2145 H   0  0  0  0  0  0  0  0  0  0  0  0
    6.4265    9.0312  -21.7178 H   0  0  0  0  0  0  0  0  0  0  0  0
    7.9434    9.2372  -23.4163 H   0  0  0  0  0  0  0  0  0  0  0  0
    7.5295   10.6437  -22.4063 H   0  0  0  0  0  0  0  0  0  0  0  0
    8.1918   10.8851  -24.0403 H   0  0  0  0  0  0  0  0  0  0  0  0
    7.3281    0.7682  -21.9051 H   0  0  0  0  0  0  0  0  0  0  0  0
   -3.6489    3.0937  -20.6479 H   0  0  0  0  0  0  0  0  0  0  0  0
   -1.7846    2.8733  -22.0248 H   0  0  0  0  0  0  0  0  0  0  0  0
    3.7141    9.5448  -23.7976 N   0  0  0  0  0  0  0  0  0  0  0  0
    6.6721   11.4187  -25.7579 H   0  0  0  0  0  0  0  0  0  0  0  0
    4.3487   11.4130  -26.7020 H   0  0  0  0  0  0  0  0  0  0  0  0
    2.5001   10.2420  -25.4770 H   0  0  0  0  0  0  0  0  0  0  0  0
  2  6  2  0  0  0  0
  2 67  1  0  0  0  0
  1  5  2  0  0  0  0
  3  5  1  0  0  0  0
  6 10  1  0  0  0  0
  6 38  1  0  0  0  0
  8 40  1  0  0  0  0
  3  9  2  0  0  0  0
  4  9  1  0  0  0  0
  7  9  1  0  0  0  0
 10 13  2  0  0  0  0
 10 68  1  0  0  0  0
  1 12  1  0  0  0  0
  7 12  2  0  0  0  0
 13 16  1  0  0  0  0
 13 69  1  0  0  0  0
 12 14  1  0  0  0  0
  1 15  1  0  0  0  0
 11 15  2  0  0  0  0
 15 41  1  0  0  0  0
 16 67  2  0  0  0  0
 16 70  1  0  0  0  0
 17 42  1  0  0  0  0
 17 64  1  0  0  0  0
 11 18  1  0  0  0  0
  5 19  1  0  0  0  0
 18 19  2  0  0  0  0
 18 20  1  0  0  0  0
  4 21  1  0  0  0  0
 21 43  1  0  0  0  0
 21 44  1  0  0  0  0
 14 22  1  0  0  0  0
 22 45  1  0  0  0  0
 22 46  1  0  0  0  0
 17 23  1  0  0  0  0
 22 23  1  0  0  0  0
 23 47  1  0  0  0  0
 17 24  1  0  0  0  0
 24 48  1  0  0  0  0
 14 25  1  0  0  0  0
 24 25  1  0  0  0  0
 25 49  1  0  0  0  0
 25 50  1  0  0  0  0
 24 26  1  0  0  0  0
 26 51  1  0  0  0  0
 26 52  1  0  0  0  0
 23 27  1  0  0  0  0
 26 27  1  0  0  0  0
 27 53  1  0  0  0  0
 27 54  1  0  0  0  0
 20 28  1  0  0  0  0
 28 55  1  0  0  0  0
  8 29  1  0  0  0  0
 28 29  2  0  0  0  0
 29 30  1  0  0  0  0
 30 56  1  0  0  0  0
 30 31  2  0  0  0  0
 20 32  2  0  0  0  0
 31 32  1  0  0  0  0
 31 33  1  0  0  0  0
 33 57  1  0  0  0  0
 33 34  2  0  0  0  0
 34 58  1  0  0  0  0
 34 35  1  0  0  0  0
 35 65  1  0  0  0  0
 32 36  1  0  0  0  0
 35 36  2  0  0  0  0
 36 66  1  0  0  0  0
  2 37  1  0  0  0  0
 21 37  1  0  0  0  0
 37 59  1  0  0  0  0
 37 60  1  0  0  0  0
 38 61  1  0  0  0  0
 38 62  1  0  0  0  0
 38 63  1  0  0  0  0
 19 39  1  0  0  0  0
M  END
$$$$
