MRTX_404_7RPZ_stereo2
  PyMOL3.1          3D                             0

 82 89  0  0  0  0  0  0  0  0999 V2000
    2.3006    3.7124  -23.8537 C   0  0  0  0  0  0  0  0  0  0  0  0
    1.9085    5.9696  -23.0186 N   0  0  0  0  0  0  0  0  0  0  0  0
    3.7017    7.2379  -22.4330 O   0  0  0  0  0  0  0  0  0  0  0  0
    1.4569    4.8039  -23.5583 C   0  0  0  0  0  0  0  0  0  0  0  0
    4.1432    5.0863  -23.0760 N   0  0  0  0  0  0  0  0  0  0  0  0
    3.2270    6.0311  -22.8596 C   0  0  0  0  0  0  0  0  0  0  0  0
    0.4794    2.4736  -24.8389 N   0  0  0  0  0  0  0  0  0  0  0  0
    3.6946    3.9278  -23.5291 C   0  0  0  0  0  0  0  0  0  0  0  0
    4.6344    2.8977  -23.7020 N   0  0  0  0  0  0  0  0  0  0  0  0
    1.7810    2.5869  -24.5234 C   0  0  0  0  0  0  0  0  0  0  0  0
    6.6853    1.1937  -22.5576 N   0  3  0  0  0  0  0  0  0  0  0  0
   -0.3617    3.3603  -24.4274 C   0  0  0  0  0  0  0  0  0  0  0  0
    5.0790    9.5933  -23.2873 N   0  3  0  0  0  0  0  0  0  0  0  0
    0.1375    4.5884  -23.8197 C   0  0  0  0  0  0  0  0  0  0  0  0
   -1.8117    3.3404  -24.7926 C   0  0  0  0  0  0  0  0  0  0  0  0
    5.0960    7.3300  -22.1142 C   0  0  0  0  0  0  0  0  0  0  0  0
    4.3447    1.4411  -23.2396 C   0  0  0  0  0  0  0  0  0  0  0  0
    5.2757    1.0992  -22.0870 C   0  0  0  0  0  0  0  0  0  0  0  0
    6.8443    2.6706  -22.6061 C   0  0  0  0  0  0  0  0  0  0  0  0
    6.0947    3.2355  -23.8081 C   0  0  0  0  0  0  0  0  0  0  0  0
    6.2160    3.0865  -21.2581 C   0  0  0  0  0  0  0  0  0  0  0  0
    5.2303    2.0956  -20.9173 C   0  0  0  0  0  0  0  0  0  0  0  0
   -2.1289    3.4978  -26.2233 C   0  0  0  0  0  0  0  0  0  0  0  0
   -3.4829    3.6557  -26.5992 C   0  0  0  0  0  0  0  0  0  0  0  0
   -4.4982    3.7395  -25.7436 C   0  0  0  0  0  0  0  0  0  0  0  0
   -4.2555    3.6128  -24.4070 C   0  0  0  0  0  0  0  0  0  0  0  0
   -2.9067    3.3743  -23.8760 C   0  0  0  0  0  0  0  0  0  0  0  0
   -5.3124    3.6429  -23.4049 C   0  0  0  0  0  0  0  0  0  0  0  0
   -5.0528    3.4550  -22.0684 C   0  0  0  0  0  0  0  0  0  0  0  0
   -3.8130    3.2243  -21.7176 C   0  0  0  0  0  0  0  0  0  0  0  0
   -2.7532    3.1284  -22.4547 C   0  0  0  0  0  0  0  0  0  0  0  0
    5.3809    8.8793  -21.9858 C   0  0  0  0  0  0  0  0  0  0  0  0
    4.4128    9.5183  -20.9329 C   0  0  0  0  0  0  0  0  0  0  0  0
    3.9684   10.8147  -21.6006 C   0  0  0  0  0  0  0  0  0  0  0  0
    3.8984   10.4754  -23.0736 C   0  0  0  0  0  0  0  0  0  0  0  0
    6.3201   10.2814  -23.7114 C   0  0  0  0  0  0  0  0  0  0  0  0
    7.4171    9.4338  -23.0979 C   0  0  0  0  0  0  0  0  0  0  0  0
    6.8731    9.0933  -21.6580 C   0  0  0  0  0  0  0  0  0  0  0  0
    1.6769   10.3726  -21.5065 C   0  0  0  0  0  0  0  0  0  0  0  0
    5.2254   11.8286  -19.9132 C   0  0  0  0  0  0  0  0  0  0  0  0
   -1.2741    2.6643  -21.6023 Cl  0  0  0  0  0  0  0  0  0  0  0  0
   -0.7268    5.6157  -23.4787 F   0  0  0  0  0  0  0  0  0  0  0  0
   -3.7106    3.7128  -27.6637 H   0  0  0  0  0  0  0  0  0  0  0  0
    2.4594    1.7784  -24.7955 H   0  0  0  0  0  0  0  0  0  0  0  0
    6.8755    0.7172  -23.4276 H   0  0  0  0  0  0  0  0  0  0  0  0
    5.7224    6.8586  -22.8715 H   0  0  0  0  0  0  0  0  0  0  0  0
    5.3100    6.8205  -21.1746 H   0  0  0  0  0  0  0  0  0  0  0  0
    4.5097    0.7503  -24.0665 H   0  0  0  0  0  0  0  0  0  0  0  0
    3.3085    1.3593  -22.9113 H   0  0  0  0  0  0  0  0  0  0  0  0
    4.9541    0.1114  -21.7568 H   0  0  0  0  0  0  0  0  0  0  0  0
    7.8663    3.0304  -22.7254 H   0  0  0  0  0  0  0  0  0  0  0  0
    6.2126    4.3189  -23.8286 H   0  0  0  0  0  0  0  0  0  0  0  0
    6.5008    2.8053  -24.7235 H   0  0  0  0  0  0  0  0  0  0  0  0
    5.7582    4.0727  -21.3359 H   0  0  0  0  0  0  0  0  0  0  0  0
    6.9842    3.1296  -20.4860 H   0  0  0  0  0  0  0  0  0  0  0  0
    5.4313    1.6206  -19.9570 H   0  0  0  0  0  0  0  0  0  0  0  0
    4.2418    2.5465  -20.8309 H   0  0  0  0  0  0  0  0  0  0  0  0
   -1.3385    3.4925  -26.9738 H   0  0  0  0  0  0  0  0  0  0  0  0
   -5.5123    3.9075  -26.1062 H   0  0  0  0  0  0  0  0  0  0  0  0
   -6.3394    3.8197  -23.7245 H   0  0  0  0  0  0  0  0  0  0  0  0
   -5.8508    3.4965  -21.3271 H   0  0  0  0  0  0  0  0  0  0  0  0
    4.8857    9.6799  -19.9642 H   0  0  0  0  0  0  0  0  0  0  0  0
    3.5608    8.8666  -20.7396 H   0  0  0  0  0  0  0  0  0  0  0  0
    1.8064    9.4422  -20.9535 H   0  0  0  0  0  0  0  0  0  0  0  0
    2.9586    9.9996  -23.3539 H   0  0  0  0  0  0  0  0  0  0  0  0
    3.9685   11.3753  -23.6847 H   0  0  0  0  0  0  0  0  0  0  0  0
    6.3592   11.3235  -23.3942 H   0  0  0  0  0  0  0  0  0  0  0  0
    6.4038   10.3026  -24.7980 H   0  0  0  0  0  0  0  0  0  0  0  0
    8.3792    9.9455  -23.0732 H   0  0  0  0  0  0  0  0  0  0  0  0
    7.6221    8.5377  -23.6837 H   0  0  0  0  0  0  0  0  0  0  0  0
    7.3627    8.2522  -21.1671 H   0  0  0  0  0  0  0  0  0  0  0  0
    7.0219    9.9186  -20.9618 H   0  0  0  0  0  0  0  0  0  0  0  0
    5.5236   10.8164  -19.6400 H   0  0  0  0  0  0  0  0  0  0  0  0
    7.3281    0.7682  -21.9051 H   0  0  0  0  0  0  0  0  0  0  0  0
    4.8210    8.9753  -24.0433 H   0  0  0  0  0  0  0  0  0  0  0  0
   -3.6489    3.0937  -20.6479 H   0  0  0  0  0  0  0  0  0  0  0  0
    1.7372   10.1715  -22.5761 H   0  0  0  0  0  0  0  0  0  0  0  0
    0.7026   10.8013  -21.2724 H   0  0  0  0  0  0  0  0  0  0  0  0
    4.3606   12.1258  -19.3199 H   0  0  0  0  0  0  0  0  0  0  0  0
    6.0505   12.5143  -19.7205 H   0  0  0  0  0  0  0  0  0  0  0  0
    2.7044   11.2953  -21.1355 O   0  0  0  0  0  0  0  0  0  0  0  0
    4.8879   11.8684  -21.3022 O   0  0  0  0  0  0  0  0  0  0  0  0
  1  4  2  0  0  0  0
  2  4  1  0  0  0  0
  2  6  2  0  0  0  0
  3  6  1  0  0  0  0
  5  6  1  0  0  0  0
  1  8  1  0  0  0  0
  5  8  2  0  0  0  0
  8  9  1  0  0  0  0
  1 10  1  0  0  0  0
  7 10  2  0  0  0  0
 10 44  1  0  0  0  0
 11 45  1  0  0  0  0
 11 74  1  0  0  0  0
  7 12  1  0  0  0  0
 13 75  1  0  0  0  0
  4 14  1  0  0  0  0
 12 14  2  0  0  0  0
 12 15  1  0  0  0  0
  3 16  1  0  0  0  0
 16 46  1  0  0  0  0
 16 47  1  0  0  0  0
  9 17  1  0  0  0  0
 17 48  1  0  0  0  0
 17 49  1  0  0  0  0
 11 18  1  0  0  0  0
 17 18  1  0  0  0  0
 18 50  1  0  0  0  0
 11 19  1  0  0  0  0
 19 51  1  0  0  0  0
  9 20  1  0  0  0  0
 19 20  1  0  0  0  0
 20 52  1  0  0  0  0
 20 53  1  0  0  0  0
 19 21  1  0  0  0  0
 21 54  1  0  0  0  0
 21 55  1  0  0  0  0
 18 22  1  0  0  0  0
 21 22  1  0  0  0  0
 22 56  1  0  0  0  0
 22 57  1  0  0  0  0
 15 23  1  0  0  0  0
 23 58  1  0  0  0  0
 23 24  2  0  0  0  0
 24 43  1  0  0  0  0
 24 25  1  0  0  0  0
 25 59  1  0  0  0  0
 25 26  2  0  0  0  0
 15 27  2  0  0  0  0
 26 27  1  0  0  0  0
 26 28  1  0  0  0  0
 28 60  1  0  0  0  0
 28 29  2  0  0  0  0
 29 61  1  0  0  0  0
 29 30  1  0  0  0  0
 30 76  1  0  0  0  0
 27 31  1  0  0  0  0
 30 31  2  0  0  0  0
 13 32  1  0  0  0  0
 16 32  1  0  0  0  0
 32 33  1  0  0  0  0
 33 62  1  0  0  0  0
 33 63  1  0  0  0  0
 33 34  1  0  0  0  0
 34 81  1  0  0  0  0
 34 82  1  0  0  0  0
 13 35  1  0  0  0  0
 34 35  1  0  0  0  0
 35 65  1  0  0  0  0
 35 66  1  0  0  0  0
 13 36  1  0  0  0  0
 36 67  1  0  0  0  0
 36 68  1  0  0  0  0
 36 37  1  0  0  0  0
 37 69  1  0  0  0  0
 37 70  1  0  0  0  0
 32 38  1  0  0  0  0
 37 38  1  0  0  0  0
 38 71  1  0  0  0  0
 38 72  1  0  0  0  0
 39 64  1  0  0  0  0
 39 77  1  0  0  0  0
 39 78  1  0  0  0  0
 40 73  1  0  0  0  0
 40 79  1  0  0  0  0
 40 80  1  0  0  0  0
 31 41  1  0  0  0  0
 14 42  1  0  0  0  0
 39 81  1  0  0  0  0
 40 82  1  0  0  0  0
M  END
$$$$
