gdp_m3
  PyMOL3.1          3D                             0

 40 42  0  0  0  0  0  0  0  0999 V2000
    9.8126   -4.8810  -14.3008 P   0  0  0  0  0  0  0  0  0  0  0  0
    7.9474   -2.8905  -15.9087 P   0  0  0  0  0  0  0  0  0  0  0  0
   11.8173   -3.3201  -13.4196 C   0  0  0  0  0  0  0  0  0  0  0  0
   10.8656   -4.3052  -13.0668 O   0  0  0  0  0  0  0  0  0  0  0  0
   13.0477   -3.3802  -12.5009 C   0  0  0  0  0  0  0  0  0  0  0  0
   12.6496   -3.0661  -11.1721 O   0  0  0  0  0  0  0  0  0  0  0  0
   13.7181   -4.7496  -12.3811 C   0  0  0  0  0  0  0  0  0  0  0  0
   15.1290   -4.6373  -12.2899 O   0  0  0  0  0  0  0  0  0  0  0  0
   13.0495   -5.3957  -11.1658 C   0  0  0  0  0  0  0  0  0  0  0  0
   13.8462   -6.2920  -10.4157 O   0  0  0  0  0  0  0  0  0  0  0  0
   12.7383   -4.1684  -10.3202 C   0  0  0  0  0  0  0  0  0  0  0  0
   10.9924   -4.0440   -5.5425 N   0  0  0  0  0  0  0  0  0  0  0  0
    8.8321   -5.8243  -13.6419 O   0  5  0  0  0  0  0  0  0  0  0  0
    7.1795   -4.1389  -16.3808 O   0  5  0  0  0  0  0  0  0  0  0  0
   12.2921   -3.9224   -6.0012 C   0  0  0  0  0  0  0  0  0  0  0  0
   13.2311   -3.7570   -5.0646 N   0  0  0  0  0  0  0  0  0  0  0  0
   10.6313   -5.2584  -15.5130 O   0  0  0  0  0  0  0  0  0  0  0  0
    7.0394   -1.8387  -15.2547 O   0  5  0  0  0  0  0  0  0  0  0  0
   12.5978   -3.9641   -7.2541 N   0  0  0  0  0  0  0  0  0  0  0  0
    9.0096   -3.4224  -14.6468 O   0  0  0  0  0  0  0  0  0  0  0  0
    8.8319   -2.3033  -17.0212 O   0  0  0  0  0  0  0  0  0  0  0  0
   11.5168   -4.1724   -8.0623 C   0  0  0  0  0  0  0  0  0  0  0  0
   10.2119   -4.3365   -7.6830 C   0  0  0  0  0  0  0  0  0  0  0  0
    9.8557   -4.2481   -6.2822 C   0  0  0  0  0  0  0  0  0  0  0  0
    8.7416   -4.2977   -5.7670 O   0  0  0  0  0  0  0  0  0  0  0  0
    9.4196   -4.5606   -8.7411 N   0  0  0  0  0  0  0  0  0  0  0  0
   10.2459   -4.5475   -9.7611 C   0  0  0  0  0  0  0  0  0  0  0  0
   11.5205   -4.2586   -9.4253 N   0  0  0  0  0  0  0  0  0  0  0  0
   10.8416   -3.9498   -4.5469 H   0  0  0  0  0  0  0  0  0  0  0  0
   14.0687   -7.0319  -10.9900 H   0  0  0  0  0  0  0  0  0  0  0  0
   15.3484   -4.0629  -11.5474 H   0  0  0  0  0  0  0  0  0  0  0  0
    9.9765   -4.7247  -10.7907 H   0  0  0  0  0  0  0  0  0  0  0  0
   13.5882   -3.9416   -9.6738 H   0  0  0  0  0  0  0  0  0  0  0  0
   12.1149   -5.8726  -11.4637 H   0  0  0  0  0  0  0  0  0  0  0  0
   13.5074   -5.3489  -13.2653 H   0  0  0  0  0  0  0  0  0  0  0  0
   13.7544   -2.6216  -12.8429 H   0  0  0  0  0  0  0  0  0  0  0  0
   14.2098   -3.7193   -5.3152 H   0  0  0  0  0  0  0  0  0  0  0  0
   12.9776   -3.7118   -4.0826 H   0  0  0  0  0  0  0  0  0  0  0  0
   11.3485   -2.3438  -13.3363 H   0  0  0  0  0  0  0  0  0  0  0  0
   12.1458   -3.4329  -14.4525 H   0  0  0  0  0  0  0  0  0  0  0  0
  1  4  1  0  0  0  0
  1 13  1  0  0  0  0
  1 17  2  0  0  0  0
  1 20  1  0  0  0  0
  2 14  1  0  0  0  0
  2 18  1  0  0  0  0
  2 20  1  0  0  0  0
  2 21  2  0  0  0  0
  3  4  1  0  0  0  0
  3  5  1  0  0  0  0
  3 39  1  0  0  0  0
  3 40  1  0  0  0  0
  5  6  1  0  0  0  0
  5  7  1  0  0  0  0
  5 36  1  0  0  0  0
  6 11  1  0  0  0  0
  7  8  1  0  0  0  0
  7  9  1  0  0  0  0
  7 35  1  0  0  0  0
  8 31  1  0  0  0  0
  9 10  1  0  0  0  0
  9 11  1  0  0  0  0
  9 34  1  0  0  0  0
 10 30  1  0  0  0  0
 11 28  1  0  0  0  0
 11 33  1  0  0  0  0
 12 15  4  0  0  0  0
 12 24  4  0  0  0  0
 12 29  1  0  0  0  0
 15 16  1  0  0  0  0
 15 19  4  0  0  0  0
 16 37  1  0  0  0  0
 16 38  1  0  0  0  0
 19 22  4  0  0  0  0
 22 23  4  0  0  0  0
 22 28  4  0  0  0  0
 23 24  4  0  0  0  0
 23 26  4  0  0  0  0
 24 25  2  0  0  0  0
 26 27  4  0  0  0  0
 27 28  4  0  0  0  0
 27 32  1  0  0  0  0
M  END
$$$$
