F6P_1
  PyMOL3.1          3D                             0

 27 27  0  0  0  0  0  0  0  0999 V2000
   62.6630   69.9500  264.4910 P   0  0  0  0  0  0  0  0  0  0  0  0
   62.2910   68.9470  263.3900 O   0  5  0  0  0  0  0  0  0  0  0  0
   64.1470   70.2870  264.4810 O   0  5  0  0  0  0  0  0  0  0  0  0
   61.7210   71.1060  264.6620 O   0  0  0  0  0  0  0  0  0  0  0  0
   59.1320   67.6530  269.5140 C   0  0  0  0  0  0  0  0  0  0  0  0
   58.2200   68.3240  268.6980 O   0  0  0  0  0  0  0  0  0  0  0  0
   60.4630   68.4090  269.5420 C   0  0  0  0  0  0  0  0  0  0  0  0
   61.3270   67.6800  270.4350 O   0  0  0  0  0  0  0  0  0  0  0  0
   60.3350   69.8950  269.9350 C   0  0  0  0  0  0  0  0  0  0  0  0
   60.2680   70.0630  271.3580 O   0  0  0  0  0  0  0  0  0  0  0  0
   61.5040   70.5210  269.2010 C   0  0  0  0  0  0  0  0  0  0  0  0
   61.3770   71.9250  268.9470 O   0  0  0  0  0  0  0  0  0  0  0  0
   61.4370   69.7210  267.8960 C   0  0  0  0  0  0  0  0  0  0  0  0
   60.9940   68.4050  268.2240 O   0  0  0  0  0  0  0  0  0  0  0  0
   62.7350   69.6550  267.1120 C   0  0  0  0  0  0  0  0  0  0  0  0
   62.5150   69.0690  265.8070 O   0  0  0  0  0  0  0  0  0  0  0  0
   58.5700   68.3810  267.8060 H   0  0  0  0  0  0  0  0  0  0  0  0
   62.1790   68.1190  270.4850 H   0  0  0  0  0  0  0  0  0  0  0  0
   60.8050   69.3920  271.7860 H   0  0  0  0  0  0  0  0  0  0  0  0
   61.8640   72.1520  268.1520 H   0  0  0  0  0  0  0  0  0  0  0  0
   59.4130   70.2840  269.5020 H   0  0  0  0  0  0  0  0  0  0  0  0
   62.4370   70.3130  269.7260 H   0  0  0  0  0  0  0  0  0  0  0  0
   60.6820   70.1810  267.2580 H   0  0  0  0  0  0  0  0  0  0  0  0
   59.2940   66.6470  269.1270 H   0  0  0  0  0  0  0  0  0  0  0  0
   58.7320   67.5840  270.5260 H   0  0  0  0  0  0  0  0  0  0  0  0
   63.4610   69.0550  267.6610 H   0  0  0  0  0  0  0  0  0  0  0  0
   63.1400   70.6600  266.9950 H   0  0  0  0  0  0  0  0  0  0  0  0
  1  2  1  0  0  0  0
  1  3  1  0  0  0  0
  1  4  2  0  0  0  0
  1 16  1  0  0  0  0
  5  6  1  0  0  0  0
  5  7  1  0  0  0  0
  5 24  1  0  0  0  0
  5 25  1  0  0  0  0
  6 17  1  0  0  0  0
  7  8  1  0  0  0  0
  7  9  1  0  0  0  0
  7 14  1  0  0  0  0
  8 18  1  0  0  0  0
  9 10  1  0  0  0  0
  9 11  1  0  0  0  0
  9 21  1  0  0  0  0
 10 19  1  0  0  0  0
 11 12  1  0  0  0  0
 11 13  1  0  0  0  0
 11 22  1  0  0  0  0
 12 20  1  0  0  0  0
 13 14  1  0  0  0  0
 13 15  1  0  0  0  0
 13 23  1  0  0  0  0
 15 16  1  0  0  0  0
 15 26  1  0  0  0  0
 15 27  1  0  0  0  0
M  END
$$$$
