FLC_2
  PyMOL3.1          3D                             0

 18 17  0  0  0  0  0  0  0  0999 V2000
   98.6800   48.6860  251.4680 C   0  0  0  0  0  0  0  0  0  0  0  0
   97.8460   48.2900  250.2980 C   0  0  0  0  0  0  0  0  0  0  0  0
   98.2080   48.5050  249.1060 O   0  0  0  0  0  0  0  0  0  0  0  0
   96.8030   47.7060  250.6410 O   0  5  0  0  0  0  0  0  0  0  0  0
   99.5600   49.8750  251.2120 C   0  0  0  0  0  0  0  0  0  0  0  0
  100.2720   50.1640  252.5380 C   0  0  0  0  0  0  0  0  0  0  0  0
  101.3400   49.5560  252.8120 O   0  0  0  0  0  0  0  0  0  0  0  0
   99.7380   50.9680  253.3390 O   0  5  0  0  0  0  0  0  0  0  0  0
  100.5970   49.6720  250.1290 C   0  0  0  0  0  0  0  0  0  0  0  0
  101.4590   50.9170  250.1680 C   0  0  0  0  0  0  0  0  0  0  0  0
  102.6240   50.7590  249.8670 O   0  0  0  0  0  0  0  0  0  0  0  0
  101.0350   52.0490  250.5430 O   0  5  0  0  0  0  0  0  0  0  0  0
   98.8100   51.0280  250.8130 O   0  0  0  0  0  0  0  0  0  0  0  0
   99.2950   47.8410  251.7760 H   0  0  0  0  0  0  0  0  0  0  0  0
   98.0320   48.8920  252.3200 H   0  0  0  0  0  0  0  0  0  0  0  0
  100.1010   49.6060  249.1610 H   0  0  0  0  0  0  0  0  0  0  0  0
  101.2070   48.8020  250.3710 H   0  0  0  0  0  0  0  0  0  0  0  0
   99.4130   51.7430  250.5960 H   0  0  0  0  0  0  0  0  0  0  0  0
  1  5  1  0  0  0  0
  1 14  1  0  0  0  0
  1 15  1  0  0  0  0
  1  2  1  0  0  0  0
  2  3  2  0  0  0  0
  2  4  1  0  0  0  0
  5  6  1  0  0  0  0
  5  9  1  0  0  0  0
  5 13  1  0  0  0  0
  6  7  2  0  0  0  0
  6  8  1  0  0  0  0
  9 10  1  0  0  0  0
  9 16  1  0  0  0  0
  9 17  1  0  0  0  0
 10 11  2  0  0  0  0
 10 12  1  0  0  0  0
 13 18  1  0  0  0  0
M  END
$$$$
