POP_3
  PyMOL3.1          3D                             0

  6  5  0  0  0  0  0  0  0  0999 V2000
   94.0750   47.6780  260.4220 O   0  0  0  0  0  0  0  0  0  0  0  0
   95.1040   48.4990  259.4870 P   0  0  0  0  0  0  0  0  0  0  0  0
   95.6640   47.4570  258.4800 O   0  5  0  0  0  0  0  0  0  0  0  0
   96.1780   48.8540  260.4530 O   0  5  0  0  0  0  0  0  0  0  0  0
   94.4660   49.6720  258.8090 O   0  0  0  0  0  0  0  0  0  0  0  0
   94.4210   46.7930  260.9760 H   0  0  0  0  0  0  0  0  0  0  0  0
  1  2  1  0  0  0  0
  1  6  1  0  0  0  0
  2  3  1  0  0  0  0
  2  4  1  0  0  0  0
  2  5  2  0  0  0  0
M  END
$$$$
